<?xml version="1.0" encoding="UTF-8"?>

<!-- generated on 2023-06-06 19:46:14 by Eclipse SUMO sumo Version 1.17.0
-->

<configuration xmlns:xsi="http://www.w3.org/2001/XMLSchema-instance" xsi:noNamespaceSchemaLocation="http://sumo.dlr.de/xsd/sumoConfiguration.xsd">

    <input>
        <net-file value="../../../../../../Eduardo%20Lima/Documents/GitHub/Deep-QLearning-Agent-for-Traffic-Signal-Control/TLCS/intersection/enviroment_net.net.xml"/>
    </input>

</configuration>
