<?xml version="1.0" encoding="UTF-8"?>

<!-- generated on 2023-06-06 21:26:33 by Eclipse SUMO netedit Version 1.17.0
<configuration xmlns:xsi="http://www.w3.org/2001/XMLSchema-instance" xsi:noNamespaceSchemaLocation="http://sumo.dlr.de/xsd/netconvertConfiguration.xsd">

    <input>
        <sumocfg-file value="C:\Users\Eduardo Lima\Documents\GitHub\Deep-QLearning-Agent-for-Traffic-Signal-Control\TLCS\intersection\sumo_config.sumocfg"/>
        <additional-files value=""/>
        <route-files value="C:\Users\Eduardo Lima\Documents\GitHub\Deep-QLearning-Agent-for-Traffic-Signal-Control\TLCS\intersection\../../../../../../Eduardo Lima/Documents/GitHub/Deep-QLearning-Agent-for-Traffic-Signal-Control/TLCS/intersection/sumo_config.rou.xml"/>
        <sumo-net-file value="C:\Users\Eduardo Lima\Documents\GitHub\Deep-QLearning-Agent-for-Traffic-Signal-Control\TLCS\intersection\../../../../../../Eduardo Lima/Documents/GitHub/Deep-QLearning-Agent-for-Traffic-Signal-Control/TLCS/intersection/enviroment_net.net.xml"/>
    </input>

    <output>
        <tls-file value="C:\Users\Eduardo Lima\Documents\GitHub\Deep-QLearning-Agent-for-Traffic-Signal-Control\TLCS\intersection\TL.tll.xml"/>
    </output>

    <processing>
        <geometry.min-radius.fix.railways value="false"/>
        <geometry.max-grade.fix value="false"/>
        <offset.disable-normalization value="true"/>
        <lefthand value="0"/>
    </processing>

    <junctions>
        <no-turnarounds value="true"/>
        <junctions.corner-detail value="5"/>
        <junctions.limit-turn-speed value="5.50"/>
        <rectangular-lane-cut value="0"/>
    </junctions>

    <pedestrian>
        <walkingareas value="0"/>
    </pedestrian>

</configuration>
-->

<additional xmlns:xsi="http://www.w3.org/2001/XMLSchema-instance" xsi:noNamespaceSchemaLocation="http://sumo.dlr.de/xsd/additional_file.xsd">
    <tlLogic id="TL" type="static" programID="0" offset="0">
        <phase duration="30" state="GGGGrrrrrrrrrrrr"/>
        <phase duration="3" state="yyyyrrrrrrrrrrrr"/>
        <phase duration="2" state="rrrrrrrrrrrrrrrr"/>
        <phase duration="30" state="rrrrGGGGrrrrrrrr"/>
        <phase duration="3" state="rrrryyyyrrrrrrrr"/>
        <phase duration="2" state="rrrrrrrrrrrrrrrr"/>
        <phase duration="30" state="rrrrrrrrGGGGrrrr"/>
        <phase duration="3" state="rrrrrrrryyyyrrrr"/>
        <phase duration="2" state="rrrrrrrrrrrrrrrr"/>
        <phase duration="30" state="rrrrrrrrrrrrGGGG"/>
        <phase duration="3" state="rrrrrrrrrrrryyyy"/>
        <phase duration="2" state="rrrrrrrrrrrrrrrr"/>
    </tlLogic>
</additional>
